examples/test_perturbation_outputs/pert_min_loss/pglib_opf_case2746wp_k.m
%% MATPOWER Case Format : Version 2
function mpc = pglib_opf_case2746wp_k
mpc.version = '2';

%%-----  Power Flow Data  -----%%
%% system MVA base
mpc.baseMVA = 100.0;
%% bus data
%    bus_i    type    Pd    Qd    Gs    Bs    area    Vm    Va    baseKV    zone    Vmax    Vmin
mpc.bus = [
	1	1	0.0	0.0	0.0	0.0	1	1.03	0.0	220.0	1	1.11	0.95				
	2	1	0.0	0.0	0.0	0.0	1	1.03	0.0	220.0	1	1.11	0.95				
	3	1	0.0	0.0	0.0	0.0	1	1.03	0.0	220.0	1	1.11	0.95				
	4	1	0.0	0.0	0.0	0.0	1	1.03	0.0	220.0	1	1.11	0.95				
	5	1	0.0	0.0	0.0	0.0	1	1.03	0.0	220.0	1	1.11	0.95				
	6	1	0.0	0.0	0.0	0.0	1	1.03	0.0	220.0	1	1.11	0.95				
	7	1	0.0	0.0	0.0	0.0	1	1.03	0.0	220.0	1	1.11	0.95				
	8	1	0.0	0.0	0.0	0.0	1	1.0	0.0	400.0	1	1.05	0.95				
	9	1	0.0	0.0	0.0	0.0	1	1.0	0.0	400.0	1	1.05	0.95				
	10	1	0.0	0.0	0.0	0.0	1	1.03	0.0	220.0	1	1.11	0.95				
	11	1	0.0	0.0	0.0	0.0	1	1.03	0.0	220.0	1	1.11	0.95				
	12	1	0.0	0.0	0.0	0.0	1	1.03	0.0	220.0	1	1.11	0.95				
	13	1	0.0	0.0	0.0	0.0	1	1.0	0.0	400.0	1	1.05	0.95				
	14	1	0.0	0.0	0.0	0.0	1	1.0	0.0	400.0	1	1.05	0.95				
	15	1	0.0	0.0	0.0	0.0	1	1.0	0.0	400.0	1	1.05	0.95				
	16	1	0.0	0.0	0.0	0.0	1	1.0	0.0	400.0	1	1.05	0.95				
	17	2	11.0	40.0	0.0	0.0	1	1.03	0.0	220.0	1	1.11	0.95				
	18	2	14.000000000000002	40.0	0.0	0.0	1	1.03	0.0	220.0	1	1.11	0.95				
	19	1	0.0	0.0	0.0	0.0	1	1.03	0.0	220.0	1	1.11	0.95				
	20	1	0.0	0.0	0.0	0.0	1	1.03	0.0	220.0	1	1.11	0.95				
	21	1	0.0	0.0	0.0	0.0	1	1.03	0.0	220.0	1	1.11	0.95				
	22	1	0.0	0.0	0.0	0.0	1	1.03	0.0	220.0	1	1.11	0.95				
	23	1	0.0	0.0	0.0	0.0	1	1.03	0.0	220.0	1	1.11	0.95				
	24	1	0.0	0.0	0.0	0.0	1	1.03	0.0	220.0	1	1.11	0.95				
	25	1	0.0	0.0	0.0	0.0	1	1.0	0.0	400.0	1	1.05	0.95				
	26	2	46.738	72.054	0.0	0.0	1	1.03	0.0	220.0	1	1.11	0.95				
	27	2	85.493	122.06000000000002	0.0	0.0	1	1.03	0.0	220.0	1	1.11	0.95				
	28	3	60.0	110.00000000000001	0.0	0.0	1	1.0	0.0	400.0	1	1.05	0.95				
	29	2	60.097	90.0	0.0	0.0	1	1.0	0.0	400.0	1	1.05	0.95				
	30	1	0.0	0.0	0.0	0.0	1	1.03	0.0	220.0	1	1.11	0.95				
	31	1	0.0	0.0	0.0	0.0	1	1.0	0.0	400.0	1	1.05	0.95				
	32	1	0.0	0.0	0.0	0.0	1	1.03	0.0	220.0	1	1.11	0.95				
	33	1	0.0	0.0	0.0	0.0	1	1.03	0.0	220.0	1	1.11	0.95				
	34	1	0.0	0.0	0.0	0.0	1	1.03	0.0	220.0	1	1.11	0.95				
	35	1	0.0	0.0	0.0	0.0	1	1.03	0.0	220.0	2	1.11	0.95				
	36	1	0.0	0.0	0.0	0.0	1	1.03	0.0	220.0	2	1.11	0.95				
	37	1	0.0	0.0	0.0	0.0	1	1.03	0.0	220.0	2	1.11	0.95				
	38	1	0.0	0.0	0.0	0.0	1	1.03	0.0	220.0	2	1.11	0.95				
	39	1	0.0	0.0	0.0	0.0	1	1.03	0.0	220.0	2	1.11	0.95				
	40	1	0.0	0.0	0.0	0.0	1	1.03	0.0	220.0	2	1.11	0.95				
	41	1	0.0	0.0	0.0	0.0	1	1.03	0.0	220.0	2	1.11	0.95				
	42	1	0.0	0.0	0.0	0.0	1	1.0	0.0	400.0	2	1.05	0.95				
	43	2	11.436	0.0	0.0	0.0	1	1.03	0.0	220.0	2	1.11	0.95				
	44	2	24.0	0.0	0.0	0.0	1	1.03	0.0	220.0	2	1.11	0.95				
	45	2	20.0	0.0	0.0	0.0	1	1.0	0.0	400.0	2	1.05	0.95				
	46	1	0.0	0.0	0.0	0.0	1	1.0	0.0	400.0	2	1.05	0.95				
	47	1	0.0	0.0	0.0	0.0	1	1.03	0.0	220.0	2	1.11	0.95				
	48	1	0.0	0.0	0.0	0.0	1	1.0	0.0	400.0	2	1.05	0.95				
	49	1	0.0	0.0	0.0	0.0	1	1.0	0.0	400.0	2	1.05	0.95				
	50	1	0.0	0.0	0.0	0.0	1	1.0	0.0	400.0	2	1.05	0.95				
	51	1	0.0	0.0	0.0	0.0	1	1.03	0.0	220.0	2	1.11	0.95				
	52	1	0.0	0.0	0.0	0.0	1	1.03	0.0	220.0	2	1.11	0.95				
	53	1	0.0	0.0	0.0	0.0	1	1.0	0.0	400.0	2	1.05	0.95				
	54	1	0.0	0.0	0.0	0.0	1	1.0	0.0	400.0	2	1.05	0.95				
	55	2	12.0	0.0	0.0	0.0	1	1.03	0.0	220.0	2	1.11	0.95				
	56	2	11.436	0.0	0.0	0.0	1	1.03	0.0	220.0	2	1.11	0.95				
	57	2	12.0	0.0	0.0	0.0	1	1.0	0.0	400.0	2	1.05	0.95				
	58	2	11.436	0.0	0.0	0.0	1	1.0	0.0	400.0	2	1.05	0.95				
	59	2	167.518	60.0	0.0	0.0	1	1.03	0.0	220.0	2	1.11	0.95				
	60	1	0.0	0.0	0.0	0.0	1	1.03	0.0	220.0	2	1.11	0.95				
	61	1	0.0	0.0	0.0	0.0	1	1.03	0.0	220.0	2	1.11	0.95				
	62	1	0.0	0.0	0.0	0.0	1	1.03	0.0	220.0	2	1.11	0.95				
	63	1	0.0	0.0	0.0	0.0	1	1.03	0.0	220.0	2	1.11	0.95				
	64	1	0.0	0.0	0.0	0.0	1	1.0	0.0	400.0	2	1.05	0.95				
	65	1	0.0	0.0	0.0	0.0	1	1.0	0.0	400.0	2	1.05	0.95				
	66	1	0.0	0.0	0.0	0.0	1	1.03	0.0	220.0	2	1.11	0.95				
	67	1	0.0	0.0	0.0	0.0	1	1.03	0.0	220.0	2	1.11	0.95				
	68	1	0.0	0.0	0.0	0.0	1	1.03	0.0	220.0	2	1.11	0.95				
	69	1	0.0	0.0	0.0	0.0	1	1.03	0.0	220.0	3	1.11	0.95				
	70	1	7.123	0.0	0.0	0.0	1	1.03	0.0	220.0	3	1.11	0.95				
	71	1	8.31	0.9329999999999999	0.0	0.0	1	1.03	0.0	220.0	3	1.11	0.95				
	72	1	0.0	0.0	0.0	0.0	1	1.03	0.0	220.0	3	1.11	0.95				
	73	1	0.0	0.0	0.0	0.0	1	1.03	0.0	220.0	3	1.11	0.95				
	74	1	0.0	0.0	0.0	0.0	1	1.03	0.0	220.0	3	1.11	0.95				
	75	1	0.0	0.0	0.0	0.0	1	1.03	0.0	220.0	3	1.11	0.95				
	76	1	0.0	0.0	0.0	0.0	1	1.03	0.0	220.0	3	1.11	0.95				
	77	1	0.0	0.0	0.0	0.0	1	1.03	0.0	220.0	3	1.11	0.95				
	78	2	27.0	70.0	0.0	0.0	1	1.03	0.0	220.0	3	1.11	0.95				
	79	2	9.0	21.0	0.0	0.0	1	1.03	0.0	220.0	3	1.11	0.95				
	80	1	10.328	2.61	0.0	0.0	1	1.03	0.0	220.0	3	1.11	0.95				
	81	1	0.0	0.0	0.0	0.0	1	1.03	0.0	220.0	3	1.11	0.95				
	82	2	35.0	108.0	0.0	0.0	1	1.0	0.0	400.0	3	1.05	0.95				
	83	1	0.0	0.0	0.0	0.0	1	1.03	0.0	220.0	3	1.11	0.95				
	84	1	0.0	0.0	0.0	0.0	1	1.03	0.0	220.0	3	1.11	0.95				
	85	1	0.0	0.0	0.0	0.0	1	1.03	0.0	220.0	3	1.11	0.95				
	86	1	37.893	12.351	0.0	0.0	1	1.03	0.0	220.0	3	1.11	0.95				
	87	1	0.0	0.0	0.0	0.0	1	1.03	0.0	220.0	3	1.11	0.95				
	88	1	0.0	0.0	0.0	0.0	1	1.03	0.0	220.0	3	1.11	0.95				
	89	1	0.0	0.0	0.0	0.0	1	1.03	0.0	220.0	3	1.11	0.95				
	90	1	0.0	0.0	0.0	0.0	1	1.03	0.0	220.0	3	1.11	0.95				
	91	1	0.0	0.0	0.0	0.0	1	1.03	0.0	220.0	3	1.11	0.95				
	92	1	0.0	0.0	0.0	0.0	1	1.0	0.0	400.0	3	1.05	0.95				
	93	1	0.0	0.0	0.0	0.0	1	1.0	0.0	400.0	3	1.05	0.95				
	94	1	0.0	0.0	0.0	0.0	1	1.03	0.0	220.0	3	1.11	0.95				
	95	1	0.0	0.0	0.0	0.0	1	1.03	0.0	220.0	3	1.11	0.95				
	96	1	0.0	0.0	0.0	0.0	1	1.03	0.0	220.0	3	1.11	0.95				
	97	1	0.0	0.0	0.0	0.0	1	1.03	0.0	220.0	3	1.11	0.95				
	98	1	16.027	7.274	0.0	0.0	1	1.03	0.0	220.0	3	1.11	0.95				
	99	1	7.764	0.258	0.0	0.0	1	1.03	0.0	220.0	3	1.11	0.95				
	100	1	0.0	0.0	0.0	0.0	1	1.03	0.0	220.0	3	1.11	0.95				
	101	1	0.0	0.0	0.0	0.0	1	1.03	0.0	220.0	3	1.11	0.95				
	102	1	0.0	0.0	0.0	0.0	1	1.03	0.0	220.0	3	1.11	0.95				
	103	1	0.0	0.0	0.0	0.0	1	1.03	0.0	220.0	3	1.11	0.95				
	104	2	14.000000000000002	40.0	0.0	0.0	1	1.03	0.0	220.0	3	1.11	0.95				
	105	2	14.000000000000002	40.0	0.0	0.0	1	1.03	0.0	220.0	3	1.11	0.95				
	106	2	7.000000000000001	18.0	0.0	0.0	1	1.03	0.0	220.0	3	1.11	0.95				
	107	2	8.0	15.0	0.0	0.0	1	1.03	0.0	220.0	3	1.11	0.95				
	108	1	1.044	0.0	0.0	0.0	1	1.03	0.0	220.0	3	1.11	0.95				
	109	1	1.259	0.0	0.0	0.0	1	1.03	0.0	220.0	3	1.11	0.95				
	110	1	0.0	0.0	0.0	0.0	1	1.03	0.0	220.0	3	1.11	0.95				
	111	1	0.0	0.0	0.0	0.0	1	1.03	0.0	220.0	3	1.11	0.95				
	112	1	0.0	0.0	0.0	0.0	1	1.03	0.0	220.0	3	1.11	0.95				
	113	1	0.0	0.0	0.0	0.0	1	1.03	0.0	220.0	3	1.11	0.95				
	114	1	0.0	0.0	0.0	0.0	1	1.03	0.0	220.0	3	1.11	0.95				
	115	1	0.0	0.0	0.0	0.0	1	1.0	0.0	400.0	3	1.05	0.95				
	116	1	0.0	0.0	0.0	0.0	1	1.03	0.0	220.0	3	1.11	0.95				
	117	2	8.0	15.0	0.0	0.0	1	1.03	0.0	220.0	3	1.11	0.95				
	118	2	5.5	10.0	0.0	0.0	1	1.03	0.0	220.0	3	1.11	0.95				
	119	1	0.0	0.0	0.0	0.0	1	1.03	0.0	220.0	3	1.11	0.95				
	120	1	0.0	0.0	0.0	0.0	1	1.0	0.0	400.0	3	1.05	0.95				
	121	1	0.0	0.0	0.0	0.0	1	1.0	0.0	400.0	3	1.05	0.95				
	122	1	0.0	0.0	0.0	0.0	1	1.0	0.0	400.0	3	1.05	0.95				
	123	1	0.0	0.0	0.0	0.0	1	1.0	0.0	400.0	3	1.05	0.95				
	124	1	0.0	0.0	0.0	0.0	1	1.03	0.0	220.0	3	1.11	0.95				
	125	2	18.343	21.865	0.0	0.0	1	1.03	0.0	220.0	3	1.11	0.95				
	126	2	28.469	34.292	0.0	0.0	1	1.03	0.0	220.0	3	1.11	0.95				
	127	2	28.000000000000004	66.0	0.0	0.0	1	1.0	0.0	400.0	3	1.05	0.95				
	128	1	0.0	0.0	0.0	0.0	1	1.0	0.0	400.0	3	1.05	0.95				
	129	1	0.0	0.0	0.0	0.0	1	1.03	0.0	220.0	3	1.11	0.95				
	130	1	0.0	0.0	0.0	0.0	1	1.03	0.0	220.0	3	1.11	0.95				
	131	1	0.0	0.0	0.0	0.0	1	1.03	0.0	220.0	3	1.11	0.95				
	132	2	3.0	18.0	0.0	0.0	1	1.03	0.0	220.0	3	1.11	0.95				
	133	2	2.0	6.0	0.0	0.0	1	1.03	0.0	220.0	3	1.11	0.95				
	134	2	15.447	12.879999999999999	0.0	0.0	1	1.03	0.0	220.0	4	1.11	0.95				
	135	1	5.255	-0.357	0.0	0.0	1	1.03	0.0	220.0	4	1.11	0.95				
	136	1	0.0	0.0	0.0	0.0	1	1.03	0.0	220.0	4	1.11	0.95				
	137	1	0.0	0.0	0.0	0.0	1	1.03	0.0	220.0	4	1.11	0.95				
	138	1	0.0	0.0	0.0	0.0	1	1.0	0.0	400.0	4	1.05	0.95				
	139	1	0.0	0.0	0.0	0.0	1	1.0	0.0	400.0	4	1.05	0.95				
	140	1	0.0	0.0	0.0	0.0	1	1.03	0.0	220.0	4	1.11	0.95				
	141	1	0.0	0.0	0.0	0.0	1	1.03	0.0	220.0	4	1.11	0.95				
	142	1	0.0	0.0	0.0	0.0	1	1.03	0.0	220.0	4	1.11	0.95				
	143	1	0.0	0.0	0.0	0.0	1	1.03	0.0	220.0	4	1.11	0.95				
	144	1	0.0	0.0	0.0	0.0	1	1.03	0.0	220.0	4	1.11	0.95				
	145	1	0.0	0.0	0.0	0.0	1	1.03	0.0	220.0	4	1.11	0.95				
	146	2	10.954	-0.465	0.0	0.0	1	1.03	0.0	220.0	4	1.11	0.95				
	147	1	10.812	-0.465	0.0	0.0	1	1.03	0.0	220.0	4	1.11	0.95				
	148	2	11.5	6.860000000000001	0.0	0.0	1	1.03	0.0	220.0	4	1.11	0.95				
	149	1	1.6340000000000001	3.038	0.0	0.0	1	1.03	0.0	220.0	4	1.11	0.95				
	150	2	8.087	-0.38	0.0	0.0	1	1.0	0.0	400.0	4	1.05	0.95				
	151	2	16.174	-0.76	0.0	0.0	1	1.0	0.0	400.0	4	1.05	0.95				
	152	1	0.0	0.0	0.0	0.0	1	1.03	0.0	220.0	4	1.11	0.95				
	153	1	0.0	0.0	0.0	0.0	1	1.03	0.0	220.0	4	1.11	0.95				
	154	1	0.0	0.0	0.0	0.0	1	1.03	0.0	220.0	4	1.11	0.95				
	155	2	30.555	-3.5549999999999997	0.0	0.0	1	1.03	0.0	220.0	4	1.11	0.95				
	156	2	14.679	-3.566	0.0	0.0	1	1.03	0.0	220.0	4	1.11	0.95				
	157	1	0.0	0.0	0.0	0.0	1	1.03	0.0	220.0	4	1.11	0.95				
	158	1	0.0	0.0	0.0	0.0	1	1.0	0.0	400.0	4	1.05	0.95				
	159	2	7.385	-1.783	0.0	0.0	1	1.0	0.0	400.0	4	1.05	0.95				
	160	1	0.0	0.0	0.0	0.0	1	1.03	0.0	220.0	4	1.11	0.95				
	161	1	0.0	0.0	0.0	0.0	1	1.03	0.0	220.0	4	1.11	0.95				
	162	1	0.0	0.0	0.0	0.0	1	1.0	0.0	400.0	4	1.05	0.95				
	163	1	0.0	0.0	0.0	0.0	1	1.0	0.0	400.0	4	1.05	0.95				
	164	1	0.0	0.0	0.0	0.0	1	1.0	0.0	400.0	4	1.05	0.95				
	165	2	4.293	-8.964	0.0	0.0	1	1.03	0.0	220.0	4	1.11	0.95				
	166	2	23.077	7.176	0.0	0.0	1	1.03	0.0	220.0	4	1.11	0.95				
	167	1	0.0	0.0	0.0	0.0	1	1.03	0.0	220.0	4	1.11	0.95				
	168	1	0.0	0.0	0.0	0.0	1	1.03	0.0	220.0	4	1.11	0.95				
	169	1	0.0	0.0	0.0	0.0	1	1.03	0.0	220.0	4	1.11	0.95				
	170	1	0.0	0.0	0.0	0.0	1	1.03	0.0	220.0	4	1.11	0.95				
	171	1	0.0	0.0	0.0	0.0	1	1.03	0.0	220.0	4	1.11	0.95				
	172	1	0.0	0.0	0.0	0.0	1	1.0	0.0	400.0	4	1.05	0.95				
	173	1	0.0	0.0	0.0	0.0	1	1.0	0.0	400.0	4	1.05	0.95				
	174	1	0.0	0.0	0.0	0.0	1	1.03	0.0	220.0	4	1.11	0.95				
	175	1	0.0	0.0	0.0	0.0	1	1.03	0.0	220.0	4	1.11	0.95				
	176	1	0.0	0.0	0.0	0.0	1	1.03	0.0	220.0	4	1.11	0.95				
	177	1	0.0	0.0	0.0	0.0	1	1.03	0.0	220.0	4	1.11	0.95				
	178	1	0.0	0.0	0.0	0.0	1	1.03	0.0	220.0	4	1.11	0.95				
	179	1	0.0	0.0	0.0	0.0	1	1.03	0.0	220.0	4	1.11	0.95				
	180	1	0.0	0.0	0.0	0.0	1	1.03	0.0	220.0	4	1.11	0.95				
	181	1	0.0	0.0	0.0	0.0	1	1.03	0.0	220.0	4	1.11	0.95				
	182	1	0.0	0.0	0.0	0.0	1	1.03	0.0	220.0	5	1.11	0.95				
	183	1	0.0	0.0	0.0	0.0	1	1.03	0.0	220.0	5	1.11	0.95				
	184	1	0.0	0.0	0.0	0.0	1	1.0	0.0	400.0	5	1.05	0.95				
	185	1	0.0	0.0	0.0	0.0	1	1.0	0.0	400.0	5	1.05	0.95				
	186	1	0.0	0.0	0.0	0.0	1	1.0	0.0	400.0	5	1.05	0.95				
	187	1	0.0	0.0	0.0	0.0	1	1.0	0.0	400.0	5	1.05	0.95				
	188	1	0.0	0.0	0.0	0.0	1	1.03	0.0	220.0	5	1.11	0.95				
	189	1	0.0	0.0	0.0	0.0	1	1.03	0.0	220.0	5	1.11	0.95				
	190	1	0.0	0.0	0.0	0.0	1	1.03	0.0	220.0	5	1.11	0.95				
	191	1	0.0	0.0	0.0	0.0	1	1.03	0.0	220.0	5	1.11	0.95				
	192	1	0.0	0.0	0.0	0.0	1	1.0	0.0	400.0	5	1.05	0.95				
	193	1	0.0	0.0	0.0	0.0	1	1.03	0.0	220.0	5	1.11	0.95				
	194	1	0.0	0.0	0.0	0.0	1	1.03	0.0	220.0	5	1.11	0.95				
	195	1	0.0	0.0	0.0	0.0	1	1.0	0.0	400.0	5	1.05	0.95				
	196	1	0.0	0.0	0.0	0.0	1	1.0	0.0	400.0	5	1.05	0.95				
	197	1	0.0	0.0	0.0	0.0	1	1.03	0.0	220.0	5	1.11	0.95				
	198	1	0.0	0.0	0.0	0.0	1	1.03	0.0	220.0	5	1.11	0.95				
	199	1	0.0	0.0	0.0	0.0	1	1.0	0.0	400.0	5	1.05	0.95				
	200	1	0.0	0.0	0.0	0.0	1	1.0	0.0	400.0	5	1.05	0.95				
...
];

%% generator data
%    bus    Pg    Qg    Qmax    Qmin    Vg    mBase    status    Pmax    Pmin    Pc1    Pc2    Qc1min    Qc1max    Qc2min    Qc2max    ramp_agc    ramp_10    ramp_30    ramp_q    apf
mpc.gen = [
	17	170.0	55.00000000000001	120.0	-10.0	1.03	233.2	1	200.0	140.0															
	18	170.0	55.00000000000001	120.0	-10.0	1.03	233.2	1	200.0	140.0															
	26	330.0	105.0	220.00000000000003	-10.0	1.03	430.5	1	370.0	290.0															
	26	325.0	105.0	220.00000000000003	-10.0	1.03	421.9	1	360.0	290.0															
	27	325.0	105.0	220.00000000000003	-10.0	1.03	421.9	1	360.0	290.0															
	27	330.0	105.0	220.00000000000003	-10.0	1.03	430.5	1	370.0	290.0															
	27	330.0	105.0	220.00000000000003	-10.0	1.03	430.5	1	370.0	290.0															
	28	330.0	105.0	220.00000000000003	-10.0	1.0	430.5	1	370.0	290.0															
	28	330.0	105.0	220.00000000000003	-10.0	1.0	430.5	1	370.0	290.0															
	28	330.0	105.0	220.00000000000003	-10.0	1.0	430.5	1	370.0	290.0															
	29	330.0	105.0	220.00000000000003	-10.0	1.0	430.5	1	370.0	290.0															
	29	330.0	105.0	220.00000000000003	-10.0	1.0	430.5	1	370.0	290.0															
	29	330.0	105.0	220.00000000000003	-10.0	1.0	430.5	1	370.0	290.0															
	43	175.0	50.0	120.0	-20.0	1.03	246.2	1	215.0	135.0															
	43	0.0	0.0	120.0	-20.0	1.03	275.3	0	247.8	135.0															
	43	191.4	50.0	120.0	-20.0	1.03	275.3	1	247.8	135.0															
	44	180.0	50.0	120.0	-20.0	1.03	255.0	1	225.0	135.0															
	44	180.0	50.0	120.0	-20.0	1.03	255.0	1	225.0	135.0															
	44	0.0	0.0	120.0	-20.0	1.03	255.0	0	225.0	135.0															
	45	0.0	0.0	350.0	-40.0	1.0	610.3	0	500.0	350.0															
	45	425.0	155.0	350.0	-40.0	1.0	610.3	1	500.0	350.0															
	55	177.5	50.0	120.0	-20.0	1.03	255.0	1	225.0	130.0															
	56	177.5	49.9995	120.0	-20.001	1.03	255.0	1	225.0	130.0															
	56	177.5	49.9995	120.0	-20.001	1.03	255.0	1	225.0	130.0															
	57	177.5	50.0	120.0	-20.0	1.0	255.0	1	225.0	130.0															
	58	0.0	0.0	120.0	-20.0	1.0	255.0	0	225.0	130.0															
	58	177.5	49.997	120.0	-20.006	1.0	255.0	1	225.0	130.0															
	58	177.5	49.997	120.0	-20.006	1.0	255.0	1	225.0	130.0															
	59	78.5	16.82	33.64	0.0	1.03	85.4	1	78.5	78.5															
	78	182.5	55.00000000000001	105.0	5.0	1.03	248.3	1	225.0	140.0															
	78	182.5	55.00000000000001	105.0	5.0	1.03	248.3	1	225.0	140.0															
	79	0.0	0.0	105.0	5.0	1.03	243.8	0	220.00000000000003	140.0															
	79	0.0	0.0	105.0	5.0	1.03	248.3	0	225.0	140.0															
	79	182.5	55.00000000000001	105.0	5.0	1.03	248.3	1	225.0	140.0															
	82	300.0	77.5	192.0	-37.0	1.0	425.8	1	380.0	220.00000000000003															
	82	295.0	77.5	174.0	-19.0	1.0	408.9	1	370.0	220.00000000000003															
	104	179.5	32.5	112.99999999999999	-48.0	1.03	251.8	1	225.0	134.0															
	105	179.5	32.5	112.99999999999999	-48.0	1.03	251.8	1	225.0	134.0															
	106	99.5	42.5	90.0	-5.0	1.03	150.0	1	120.0	79.0															
	107	99.5	42.5	90.0	-5.0	1.03	150.0	1	120.0	79.0															
	116	0.0	0.0	90.0	-20.0	1.03	150.0	0	120.0	90.0															
	117	95.0	35.0	90.0	-20.0	1.03	150.0	1	120.0	70.0															
	118	95.0	50.5	68.0	33.0	1.03	129.3	1	110.00000000000001	80.0															
	125	187.5	51.0	112.99999999999999	-11.0	1.03	242.9	1	215.0	160.0															
	126	182.5	39.5	84.0	-5.0	1.03	240.2	1	225.0	140.0															
	126	0.0	0.0	80.0	-5.0	1.03	229.4	0	215.0	160.0															
	127	182.5	35.751	79.0	-7.498	1.0	238.5	1	225.0	140.0															
	127	190.0	45.0	100.0	-10.0	1.0	241.7	1	220.00000000000003	160.0															
	132	99.5	1.0	40.0	-38.0	1.03	131.2	1	125.0	74.0															
	132	99.5	1.0	40.0	-38.0	1.03	131.2	1	125.0	74.0															
	133	0.0	0.0	40.0	-38.0	1.03	131.2	0	125.0	74.0															
	133	99.5	1.0	40.0	-38.0	1.03	131.2	1	125.0	74.0															
	134	0.0	0.0	90.0	0.0	1.03	150.0	0	120.0	102.0															
	134	110.00000000000001	45.0	90.0	0.0	1.03	150.0	1	120.0	100.0															
	135	0.0	0.0	90.0	0.0	1.03	150.0	0	120.0	102.0															
	146	40.0	6.0	12.0	0.0	1.03	51.4	1	50.0	30.0															
	146	40.0	6.0	12.0	0.0	1.03	51.4	1	50.0	30.0															
	147	0.0	0.0	90.0	0.0	1.03	150.0	0	120.0	90.0															
	148	156.0	60.0	120.0	0.0	1.03	252.4	1	222.00000000000003	90.0															
	148	0.0	0.0	120.0	0.0	1.03	237.5	0	204.99999999999997	135.0															
	148	0.0	0.0	120.0	0.0	1.03	237.5	0	204.99999999999997	135.0															
	148	156.0	60.0	120.0	0.0	1.03	252.4	1	222.00000000000003	90.0															
	150	156.0	60.0	120.0	0.0	1.0	252.4	1	222.00000000000003	90.0															
	151	156.0	60.0	120.0	0.0	1.0	252.4	1	222.00000000000003	90.0															
	151	156.0	60.0	120.0	0.0	1.0	252.4	1	222.00000000000003	90.0															
	155	164.5	60.0	120.0	0.0	1.03	263.9	1	235.0	94.0															
	155	164.5	60.0	120.0	0.0	1.03	263.9	1	235.0	94.0															
	155	0.0	0.0	120.0	0.0	1.03	237.5	0	204.99999999999997	130.0															
	155	182.5	60.0	120.0	0.0	1.03	287.3	1	261.0	104.0															
	156	0.0	0.0	120.0	0.0	1.03	237.5	0	204.99999999999997	130.0															
	156	167.5	60.0	120.0	0.0	1.03	237.5	1	204.99999999999997	130.0															
	156	163.0	60.0	120.0	0.0	1.03	238.4	1	206.0	120.0															
	156	163.0	60.0	120.0	0.0	1.03	238.4	1	206.0	120.0															
	159	163.0	60.0	120.0	0.0	1.0	238.4	1	206.0	120.0															
	165	175.0	59.9955	120.0	-0.009	1.03	233.2	1	200.0	150.0															
	165	175.0	59.9955	120.0	-0.009	1.03	233.2	1	200.0	150.0															
	166	175.0	60.0	120.0	0.0	1.03	233.2	1	200.0	150.0															
	166	175.0	60.0	120.0	0.0	1.03	233.2	1	200.0	150.0															
	205	159.5	25.0	110.00000000000001	-60.0	1.0	210.1	1	179.0	140.0															
	205	159.5	25.0	110.00000000000001	-60.0	1.0	210.1	1	179.0	140.0															
	205	0.0	0.0	110.00000000000001	-60.0	1.0	210.1	0	179.0	140.0															
	206	159.5	25.0	110.00000000000001	-60.0	1.0	210.1	1	179.0	140.0															
	215	37.079	10.0	20.0	0.0	1.035	58.5	1	37.079	37.079															
	215	33.708	10.0	20.0	0.0	1.035	53.9	1	33.708	33.708															
	215	33.708	10.0	20.0	0.0	1.035	53.9	1	33.708	33.708															
	215	15.506	10.0	20.0	0.0	1.035	30.5	1	15.506	15.506															
	239	4.0	4.0	8.0	0.0	1.035	15.4	1	4.0	4.0															
	246	330.0	103.0	220.00000000000003	-14.000000000000002	1.035	430.5	1	370.0	290.0															
	291	2.0	1.0	2.0	0.0	1.035	3.2	1	2.0	2.0															
	294	3.0	1.0	2.0	0.0	1.035	4.8	1	3.0	3.0															
	306	9.167	3.5000000000000004	7.000000000000001	0.0	1.035	24.0	1	9.167	9.167															
	306	16.296	3.5000000000000004	7.000000000000001	0.0	1.035	27.9	1	16.296	16.296															
	306	11.204	6.808	7.615999999999999	6.0	1.035	31.0	1	11.204	11.204															
	306	9.167	3.5000000000000004	7.000000000000001	0.0	1.035	26.9	1	9.167	9.167															
	306	9.167	3.964	7.928	0.0	1.035	28.1	1	9.167	9.167															
	307	36.5	7.5	15.0	0.0	1.035	57.0	1	36.5	36.5															
	307	36.5	7.5	15.0	0.0	1.035	57.0	1	36.5	36.5															
	308	32.0	7.5	15.0	0.0	1.035	36.7	1	32.0	32.0															
	308	40.0	8.798	17.596	0.0	1.035	57.7	1	40.0	40.0															
	310	35.0	10.0	20.0	0.0	1.035	53.9	1	35.0	35.0															
	310	75.0	13.6235	27.247	0.0	1.035	103.6	1	75.0	75.0															
	311	45.0	20.0	40.0	0.0	1.035	64.0	1	45.0	45.0															
	362	37.8	6.0	12.0	0.0	1.035	47.8	1	37.8	37.8															
	363	37.8	6.0	12.0	0.0	1.035	47.8	1	37.8	37.8															
	364	37.8	6.0	12.0	0.0	1.035	47.8	1	37.8	37.8															
	364	45.0	6.0	12.0	0.0	1.035	71.0	1	45.0	45.0															
	365	37.8	6.0	12.0	0.0	1.035	47.8	1	37.8	37.8															
	365	37.8	6.0	12.0	0.0	1.035	47.8	1	37.8	37.8															
	382	35.0	5.0	10.0	0.0	1.035	55.9	1	55.00000000000001	15.0															
	382	173.0	55.00000000000001	120.0	-10.0	1.035	255.9	1	225.99999999999997	120.0															
	383	35.0	5.0	10.0	0.0	1.035	55.9	1	55.00000000000001	15.0															
	386	3.0	1.0	2.0	0.0	1.035	4.8	1	3.0	3.0															
	421	4.0	2.0	4.0	0.0	1.035	7.7	1	4.0	4.0															
	431	7.000000000000001	4.0	8.0	0.0	1.035	13.6	1	7.000000000000001	7.000000000000001															
	440	2.5	1.0	2.0	0.0	1.035	3.6	1	2.5	2.5															
	447	3.5000000000000004	10.0	20.0	0.0	1.035	21.3	1	3.5000000000000004	3.5000000000000004															
	447	3.5000000000000004	10.0	20.0	0.0	1.035	21.3	1	3.5000000000000004	3.5000000000000004															
	463	0.0	1.0	2.0	0.0	1.035	4.0	1	0.0	0.0															
	482	1.4	0.35	0.7	0.0	1.035	1.7	1	1.4	1.4															
	490	3.5000000000000004	1.5	3.0	0.0	1.035	5.3	1	3.5000000000000004	3.5000000000000004															
	522	0.0	0.5	1.0	0.0	1.035	1.9	1	0.0	0.0															
	533	0.5	0.5	1.0	0.0	1.035	1.9	1	0.5	0.5															
	534	35.89	7.000000000000001	14.000000000000002	0.0	1.035	53.9	1	35.89	35.89															
	534	22.086	7.000000000000001	14.000000000000002	0.0	1.035	34.9	1	22.086	22.086															
	534	22.086	7.000000000000001	14.000000000000002	0.0	1.035	34.9	1	22.086	22.086															
	534	72.469	12.0005	24.001	0.0	1.035	107.7	1	72.469	72.469															
	534	72.469	12.0005	24.001	0.0	1.035	107.7	1	72.469	72.469															
	535	24.573	8.75	17.5	0.0	1.035	36.5	1	24.573	24.573															
	535	23.805	8.75	17.5	0.0	1.035	35.6	1	23.805	23.805															
	535	95.99	14.001	28.002	0.0	1.035	128.1	1	95.99	95.99															
	535	80.631	14.001	28.002	0.0	1.035	108.7	1	80.631	80.631															
	549	1.4	0.35	0.7	0.0	1.035	1.7	1	1.4	1.4															
	557	25.724000000000004	2.526	5.052	0.0	1.035	34.4	1	25.724000000000004	25.724000000000004															
	557	21.184	2.526	5.052	0.0	1.035	28.5	1	21.184	21.184															
	557	19.671	2.5	5.0	0.0	1.035	26.5	1	19.671	19.671															
	557	22.697	2.526	5.052	0.0	1.035	30.4	1	22.697	22.697															
	557	25.724000000000004	2.526	5.052	0.0	1.035	34.4	1	25.724000000000004	25.724000000000004															
	558	31.032	2.532	5.064	0.0	1.035	34.4	1	31.032	31.032															
	558	31.032	2.532	5.064	0.0	1.035	34.4	1	31.032	31.032															
	558	22.817	2.5	5.0	0.0	1.035	26.5	1	22.817	22.817															
	558	30.119	2.532	5.064	0.0	1.035	34.4	1	30.119	30.119															
	594	2.58	0.675	1.35	0.0	1.035	4.5	1	2.58	2.58															
	601	5.05	1.12	2.24	0.0	1.035	5.5	1	5.05	5.05															
	622	110.00000000000001	15.0	30.0	0.0	1.035	114.0	1	110.00000000000001	110.00000000000001															
	622	0.0	0.0	30.0	0.0	1.035	65.3	0	0.0	0.0															
	626	2.8	0.56	1.12	0.0	1.035	3.0	1	2.8	2.8															
	630	5.61	1.5700000000000003	3.1400000000000006	0.0	1.035	6.4	1	5.61	5.61															
	631	6.7299999999999995	1.5700000000000003	3.1400000000000006	0.0	1.035	7.4	1	6.7299999999999995	6.7299999999999995															
	655	1.23	0.22500000000000003	0.45000000000000007	0.0	1.035	1.3	1	1.23	1.23															
	660	180.0	50.0	120.0	-20.0	1.035	255.0	1	225.0	135.0															
	661	180.0	50.0	120.0	-20.0	1.035	255.0	1	225.0	135.0															
	667	1.91	0.505	1.01	0.0	1.035	2.2	1	1.91	1.91															
	671	9.53	1.68	3.36	0.0	1.035	10.1	1	9.53	9.53															
	673	3.36	0.56	1.12	0.0	1.035	4.4	1	3.36	3.36															
	681	190.0	15.0	30.0	0.0	1.035	192.4	1	190.0	190.0															
	681	24.998	15.0	30.0	0.0	1.035	77.5	1	24.998	24.998															
	687	11.21	2.805	5.61	0.0	1.035	12.5	1	11.21	11.21															
	699	6.7299999999999995	1.68	3.36	0.0	1.035	7.5	1	6.7299999999999995	6.7299999999999995															
	702	1.12	0.56	1.12	0.0	1.035	1.6	1	1.12	1.12															
	712	10.0	2.0	4.0	0.0	1.035	10.8	1	10.0	10.0															
	718	1.5700000000000003	0.56	1.12	0.0	1.035	1.9	1	1.5700000000000003	1.5700000000000003															
	722	2.8	0.56	1.12	0.0	1.035	3.0	1	2.8	2.8															
	731	1.68	0.28	0.56	0.0	1.035	4.3	1	1.68	1.68															
	736	177.5	50.0	120.0	-20.0	1.035	255.0	1	225.0	130.0															
	740	2.24	0.0	0.0	0.0	1.035	4.3	1	2.24	2.24															
	747	5.83	1.68	3.36	0.0	1.035	6.7	1	5.83	5.83															
	759	90.0	15.0	30.0	0.0	1.035	105.2	1	90.0	90.0															
	760	0.0	0.0	0.0	0.0	1.035	1.3	0	0.0	0.0															
	778	12.34	15.0	30.0	0.0	1.035	32.4	1	12.34	12.34															
	780	1.68	0.45000000000000007	0.9000000000000001	0.0	1.035	1.9	1	1.68	1.68															
	783	6.0	1.5	3.0	0.0	1.035	6.7	1	6.0	6.0															
	788	2.0	0.5	1.0	0.0	1.035	95.9	1	2.0	2.0															
	792	34.0	11.5	23.0	0.0	1.035	71.8	1	68.0	0.0															
	792	0.0	0.0	23.0	0.0	1.035	71.8	0	68.0	0.0															
	792	0.0	0.0	11.0	0.0	1.035	23.7	0	21.0	0.0															
	792	0.0	0.0	10.0	0.0	1.035	23.3	0	21.0	0.0															
	803	27.500000000000004	4.999	10.0	-0.002	1.035	55.9	1	55.00000000000001	0.0															
	804	60.0	5.0	10.0	0.0	1.035	120.4	1	120.0	0.0															
	809	0.0	0.0	0.0	0.0	1.035	3.3	0	0.0	0.0															
	815	3.36	1.01	2.02	0.0	1.035	3.9	1	3.36	3.36															
	834	1.12	0.0	0.0	0.0	1.035	1.5	1	1.12	1.12															
	840	30.0	4.05	8.1	0.0	1.035	51.6	1	30.0	30.0															
	840	30.0	4.05	8.1	0.0	1.035	51.6	1	30.0	30.0															
	844	1.9	0.22500000000000003	0.45000000000000007	0.0	1.035	3.5	1	1.9	1.9															
	848	3.01	0.0	0.0	0.0	1.035	5.6	1	3.01	3.01															
	854	7.000000000000001	0.675	1.35	0.0	1.035	14.6	1	7.000000000000001	7.000000000000001															
	873	68.0	20.6	41.2	0.0	1.035	87.7	1	68.0	68.0															
	876	0.0	0.0	0.0	0.0	1.035	1.9	0	0.0	0.0															
	896	0.0	0.0	45.0	-10.0	1.035	65.8	0	0.0	0.0															
	896	0.0	0.0	45.0	-10.0	1.035	71.1	0	0.0	0.0															
	896	55.00000000000001	17.5	45.0	-10.0	1.035	71.1	1	55.00000000000001	55.00000000000001															
	902	0.11100000000000002	0.0	0.0	0.0	1.035	0.3	1	0.11100000000000002	0.11100000000000002															
	903	0.0	0.0	0.0	0.0	1.035	2.5	0	0.0	0.0															
	952	2.6	0.3	0.6	0.0	1.035	3.0	1	2.6	2.6															
	958	0.0	0.0	0.0	0.0	1.035	2.5	0	0.0	0.0															
	972	27.0	18.5	32.0	5.0	1.035	54.0	1	27.0	27.0															
	972	0.0	0.0	32.0	5.0	1.035	42.5	0	0.0	0.0															
	972	3.0	4.0	7.000000000000001	1.0	1.035	11.4	1	3.0	3.0															
	972	80.0	35.0	110.00000000000001	-40.0	1.035	162.2	1	80.0	80.0															
	973	80.0	35.0	110.00000000000001	-40.0	1.035	162.2	1	80.0	80.0															
...
];

%% branch data
%    f_bus    t_bus    r    x    b    rateA    rateB    rateC    ratio    angle    status    angmin    angmax
mpc.branch = [
	7	8	0.00064	0.0305	0.0	400.0	400.0	400.0	1.0435	0.6	1	-29.999999999999996	29.999999999999996								
	26	28	0.00036	0.02519	0.0	500.0	500.0	500.0	1.0565	0.0	1	-29.999999999999996	29.999999999999996								
	27	29	0.00036	0.02519	0.0	500.0	500.0	500.0	1.0566	0.0	1	-29.999999999999996	29.999999999999996								
	40	42	0.00034	0.02097	0.0	500.0	500.0	500.0	1.068	0.0	1	-29.999999999999996	29.999999999999996								
	43	46	0.00034	0.02097	0.0	500.0	500.0	500.0	1.0569	0.0	1	-29.999999999999996	29.999999999999996								
	55	57	0.00081	0.03	0.0	400.0	400.0	400.0	1.0765	0.0	1	-29.999999999999996	29.999999999999996								
	90	92	0.00075	0.02444	-0.00832	330.0	330.0	330.0	1.0631	0.0	1	-29.999999999999996	29.999999999999996								
	91	93	0.00075	0.02469	-0.008	330.0	330.0	330.0	1.0632	0.0	1	-29.999999999999996	29.999999999999996								
	125	128	0.0005	0.02875	-0.016	400.0	400.0	400.0	1.0639	0.0	1	-29.999999999999996	29.999999999999996								
	149	150	0.00064	0.0305	0.0	400.0	400.0	400.0	1.0826	0.0	1	-29.999999999999996	29.999999999999996								
	155	158	0.000232	0.023	0.0	500.0	500.0	500.0	1.089	0.0	1	-29.999999999999996	29.999999999999996								
	156	159	0.000232	0.023	0.0	500.0	500.0	500.0	1.0893	0.0	1	-29.999999999999996	29.999999999999996								
	170	172	0.00035	0.02375	0.0	500.0	500.0	500.0	1.1049	0.0	1	-29.999999999999996	29.999999999999996								
	183	184	0.00059	0.03093	0.0	400.0	400.0	400.0	1.091	0.0	1	-29.999999999999996	29.999999999999996								
	190	192	0.0004	0.03	0.0	500.0	500.0	500.0	1.1321	0.0	1	-29.999999999999996	29.999999999999996								
	2735	158	0.00031	0.00338	0.0992	1386.0	1386.0	1386.0	0	0	1	-29.999999999999996	29.999999999999996								
	2735	159	0.00031	0.00338	0.0992	1386.0	1386.0	1386.0	0	0	1	-29.999999999999996	29.999999999999996								
	2736	68	0.014341	0.083531	0.126034	415.00000000000006	415.00000000000006	415.00000000000006	0	0	1	-29.999999999999996	29.999999999999996								
	2734	76	0.01219	0.070659	0.117418	412.0	412.0	412.0	0	0	1	-29.999999999999996	29.999999999999996								
	2734	105	0.011781	0.07087	0.116838	412.0	412.0	412.0	0	0	1	-29.999999999999996	29.999999999999996								
	2739	200	9.0e-6	9.4e-5	0.0	924.0	924.0	924.0	0	0	1	-29.999999999999996	29.999999999999996								
	128	2732	0.0015	0.01469	0.40384	1386.0	1386.0	1386.0	0	0	0	-29.999999999999996	29.999999999999996								
	127	2733	0.001419	0.014675	0.4896	1386.0	1386.0	1386.0	0	0	1	-29.999999999999996	29.999999999999996								
	2737	148	0.001651	0.015909	0.046948	373.0	373.0	373.0	0	0	1	-29.999999999999996	29.999999999999996								
	2737	149	0.001651	0.015909	0.046948	373.0	373.0	373.0	0	0	1	-29.999999999999996	29.999999999999996								
	2738	48	0.00188	0.02287	0.6432	831.0	831.0	831.0	0	0	1	-29.999999999999996	29.999999999999996								
	2738	49	0.00188	0.02287	0.6432	831.0	831.0	831.0	0	0	1	-29.999999999999996	29.999999999999996								
	82	2732	0.003519	0.039313	1.0336	1621.0	1621.0	1621.0	0	0	1	-29.999999999999996	29.999999999999996								
	43	23	0.01345	0.081141	0.141134	339.0	339.0	339.0	0	0	1	-29.999999999999996	29.999999999999996								
	26	90	0.009091	0.062401	0.111417	457.0	457.0	457.0	0	0	1	-29.999999999999996	29.999999999999996								
	27	91	0.00868	0.06405	0.096994	457.0	457.0	457.0	0	0	1	-29.999999999999996	29.999999999999996								
	146	30	0.016961	0.123659	0.196988	373.0	373.0	373.0	0	0	1	-29.999999999999996	29.999999999999996								
	135	34	0.00512	0.02618	0.029621	335.0	335.0	335.0	0	0	1	-29.999999999999996	29.999999999999996								
	134	20	0.01068	0.061961	0.094961	415.00000000000006	415.00000000000006	415.00000000000006	0	0	1	-29.999999999999996	29.999999999999996								
	165	21	0.014651	0.105891	0.170852	373.0	373.0	373.0	0	0	1	-29.999999999999996	29.999999999999996								
	41	109	0.01488	0.08161	0.114805	347.0	347.0	347.0	0	0	1	-29.999999999999996	29.999999999999996								
	40	91	0.011159	0.07231	0.103673	362.0	362.0	362.0	0	0	1	-29.999999999999996	29.999999999999996								
	179	83	0.008616	0.077645	0.122239	373.0	373.0	373.0	0	0	1	-29.999999999999996	29.999999999999996								
	203	166	0.01176	0.068289	0.102802	362.0	362.0	362.0	0	0	1	-29.999999999999996	29.999999999999996								
	194	166	0.016818	0.089091	0.129935	400.0	400.0	400.0	0	0	1	-29.999999999999996	29.999999999999996								
	193	165	0.013843	0.087025	0.134842	426.99999999999994	426.99999999999994	426.99999999999994	0	0	1	-29.999999999999996	29.999999999999996								
	207	168	0.01676	0.097169	0.148685	274.0	274.0	274.0	0	0	1	-29.999999999999996	29.999999999999996								
	43	12	0.01269	0.074979	0.130196	377.0	377.0	377.0	0	0	1	-29.999999999999996	29.999999999999996								
	198	18	0.014091	0.10413	0.15972	373.0	373.0	373.0	0	0	1	-29.999999999999996	29.999999999999996								
	100	55	0.003719	0.0438	0.100962	457.0	457.0	457.0	0	0	1	-29.999999999999996	29.999999999999996								
	163	82	0.00194	0.02056	0.51584	1316.0	1316.0	1316.0	0	0	1	-29.999999999999996	29.999999999999996								
	45	9	0.0015	0.01506	0.4032	1386.0	1386.0	1386.0	0	0	1	-29.999999999999996	29.999999999999996								
	185	151	0.00294	0.03463	0.9216	693.0	693.0	693.0	0	0	1	-29.999999999999996	29.999999999999996								
	121	57	0.00169	0.01994	0.50624	831.0	831.0	831.0	0	0	1	-29.999999999999996	29.999999999999996								
	29	93	0.00137	0.01625	0.41184	1386.0	1386.0	1386.0	0	0	1	-29.999999999999996	29.999999999999996								
	28	123	0.00231	0.02769	0.70144	1386.0	1386.0	1386.0	0	0	1	-29.999999999999996	29.999999999999996								
	25	192	0.00207	0.02474	0.664	831.0	831.0	831.0	0	0	1	-29.999999999999996	29.999999999999996								
	120	64	0.0015	0.01788	0.4512	831.0	831.0	831.0	0	0	1	-29.999999999999996	29.999999999999996								
	122	65	0.00469	0.05544	1.4048	831.0	831.0	831.0	0	0	1	-29.999999999999996	29.999999999999996								
	82	31	0.00331	0.03425	0.85888	1150.0	1150.0	1150.0	0	0	1	-29.999999999999996	29.999999999999996								
	92	28	0.00219	0.02369	0.59584	1316.0	1316.0	1316.0	0	0	1	-29.999999999999996	29.999999999999996								
	11	4	0.01674	0.09711	0.144232	461.00000000000006	461.00000000000006	461.00000000000006	0	0	1	-29.999999999999996	29.999999999999996								
	30	12	0.0057	0.0407	0.06021	373.0	373.0	373.0	0	0	1	-29.999999999999996	29.999999999999996								
	33	4	0.004419	0.032229	0.049852	392.0	392.0	392.0	0	0	1	-29.999999999999996	29.999999999999996								
	17	7	0.014591	0.11219	0.165528	426.99999999999994	426.99999999999994	426.99999999999994	0	0	1	-29.999999999999996	29.999999999999996								
	22	10	0.01211	0.087419	0.140166	373.0	373.0	373.0	0	0	1	-29.999999999999996	29.999999999999996								
	26	5	0.009773	0.050516	0.088959	377.0	377.0	377.0	0	0	1	-29.999999999999996	29.999999999999996								
	17	3	0.01068	0.07895	0.122597	274.0	274.0	274.0	0	0	1	-29.999999999999996	29.999999999999996								
	26	19	0.0057	0.039521	0.075533	480.0	480.0	480.0	0	0	1	-29.999999999999996	29.999999999999996								
	27	20	0.0057	0.039521	0.075533	480.0	480.0	480.0	0	0	1	-29.999999999999996	29.999999999999996								
	10	6	0.00525	0.03988	0.061952	373.0	373.0	373.0	0	0	1	-29.999999999999996	29.999999999999996								
	32	10	0.00093	0.00651	0.011132	373.0	373.0	373.0	0	0	1	-29.999999999999996	29.999999999999996								
	23	11	0.00205	0.01326	0.022429	415.00000000000006	415.00000000000006	415.00000000000006	0	0	1	-29.999999999999996	29.999999999999996								
	34	5	0.007831	0.043	0.04962	335.0	335.0	335.0	0	0	1	-29.999999999999996	29.999999999999996								
	19	4	0.00293	0.01599	0.024781	362.0	362.0	362.0	0	0	1	-29.999999999999996	29.999999999999996								
	26	1	0.00155	0.01169	0.018198	747.0	747.0	747.0	0	0	1	-29.999999999999996	29.999999999999996								
	27	2	0.00155	0.01169	0.018198	747.0	747.0	747.0	0	0	1	-29.999999999999996	29.999999999999996								
	27	33	0.003841	0.028531	0.045883	392.0	392.0	392.0	0	0	1	-29.999999999999996	29.999999999999996								
	24	33	2.0e-6	2.1e-5	0.0	392.0	392.0	392.0	0	0	1	-29.999999999999996	29.999999999999996								
	25	9	0.00298	0.03417	0.93504	831.0	831.0	831.0	0	0	1	-29.999999999999996	29.999999999999996								
	28	25	0.00358	0.04262	1.0944	1386.0	1386.0	1386.0	0	0	1	-29.999999999999996	29.999999999999996								
	14	29	0.00336	0.03977	1.02163	1316.0	1316.0	1316.0	0	0	1	-29.999999999999996	29.999999999999996								
	8	15	0.00299	0.03675	0.9184	1358.0	1358.0	1358.0	0	0	1	-29.999999999999996	29.999999999999996								
	8	14	0.00112	0.01329	0.341248	1358.0	1358.0	1358.0	0	0	1	-29.999999999999996	29.999999999999996								
	31	29	0.00063	0.00749	0.392256	1358.0	1358.0	1358.0	0	0	1	-29.999999999999996	29.999999999999996								
	63	59	0.010479	0.060969	0.092047	316.0	316.0	316.0	0	0	1	-29.999999999999996	29.999999999999996								
	61	56	0.00882	0.065641	0.100662	274.0	274.0	274.0	0	0	1	-29.999999999999996	29.999999999999996								
	67	35	0.011219	0.065581	0.098349	274.0	274.0	274.0	0	0	1	-29.999999999999996	29.999999999999996								
	51	35	0.01163	0.07031	0.105802	377.0	377.0	377.0	0	0	1	-29.999999999999996	29.999999999999996								
	59	43	0.00545	0.040211	0.066986	446.0	446.0	446.0	0	0	1	-29.999999999999996	29.999999999999996								
	60	44	0.00545	0.040211	0.066986	446.0	446.0	446.0	0	0	1	-29.999999999999996	29.999999999999996								
	60	35	0.00837	0.04868	0.073481	419.00000000000006	419.00000000000006	419.00000000000006	0	0	1	-29.999999999999996	29.999999999999996								
	68	52	0.003159	0.02076	0.03146	415.00000000000006	415.00000000000006	415.00000000000006	0	0	1	-29.999999999999996	29.999999999999996								
	52	39	0.006979	0.051961	0.079666	373.0	373.0	373.0	0	0	1	-29.999999999999996	29.999999999999996								
	37	56	0.00374	0.027831	0.042689	274.0	274.0	274.0	0	0	1	-29.999999999999996	29.999999999999996								
	38	36	0.00769	0.057271	0.087894	373.0	373.0	373.0	0	0	1	-29.999999999999996	29.999999999999996								
	55	38	0.00556	0.04145	0.063598	426.99999999999994	426.99999999999994	426.99999999999994	0	0	1	-29.999999999999996	29.999999999999996								
	67	37	0.004521	0.03368	0.051691	392.0	392.0	392.0	0	0	1	-29.999999999999996	29.999999999999996								
	67	66	0.00151	0.008781	0.013165	377.0	377.0	377.0	0	0	1	-29.999999999999996	29.999999999999996								
	62	43	0.00574	0.042831	0.065727	446.0	446.0	446.0	0	0	1	-29.999999999999996	29.999999999999996								
	63	44	0.00707	0.045409	0.069309	347.0	347.0	347.0	0	0	1	-29.999999999999996	29.999999999999996								
	62	40	0.01213	0.062151	0.093712	347.0	347.0	347.0	0	0	1	-29.999999999999996	29.999999999999996								
	61	41	0.002479	0.017979	0.027588	373.0	373.0	373.0	0	0	1	-29.999999999999996	29.999999999999996								
	47	40	0.002401	0.01494	0.022525	377.0	377.0	377.0	0	0	1	-29.999999999999996	29.999999999999996								
	50	46	0.00167	0.0189	0.54176	1358.0	1358.0	1358.0	0	0	1	-29.999999999999996	29.999999999999996								
	58	54	0.00109	0.01277	0.34176	1358.0	1358.0	1358.0	0	0	1	-29.999999999999996	29.999999999999996								
	42	58	0.002259	0.026439	0.70784	1358.0	1358.0	1358.0	0	0	1	-29.999999999999996	29.999999999999996								
	64	58	0.00094	0.01097	0.29376	1552.0	1552.0	1552.0	0	0	1	-29.999999999999996	29.999999999999996								
	48	65	0.00113	0.01406	0.37488	831.0	831.0	831.0	0	0	1	-29.999999999999996	29.999999999999996								
	53	45	0.00176	0.02144	0.57344	1358.0	1358.0	1358.0	0	0	1	-29.999999999999996	29.999999999999996								
	96	125	0.004876	0.033616	0.059609	446.0	446.0	446.0	0	0	1	-29.999999999999996	29.999999999999996								
	75	106	0.01093	0.059194	0.08439	290.0	290.0	290.0	0	0	1	-29.999999999999996	29.999999999999996								
	106	94	0.001942	0.013926	0.022845	446.0	446.0	446.0	0	0	1	-29.999999999999996	29.999999999999996								
	79	85	0.004318	0.029752	0.05264	373.0	373.0	373.0	0	0	1	-29.999999999999996	29.999999999999996								
	131	130	0.000661	0.004959	0.007579	419.00000000000006	419.00000000000006	419.00000000000006	0	0	1	-29.999999999999996	29.999999999999996								
	107	131	0.005372	0.040393	0.060055	419.00000000000006	419.00000000000006	419.00000000000006	0	0	1	-29.999999999999996	29.999999999999996								
	91	131	0.000826	0.005248	0.008683	305.0	305.0	305.0	0	0	1	-29.999999999999996	29.999999999999996								
	100	119	0.015888	0.087603	0.116818	347.0	347.0	347.0	0	0	1	-29.999999999999996	29.999999999999996								
	81	113	0.002169	0.014587	0.025749	316.0	316.0	316.0	0	0	1	-29.999999999999996	29.999999999999996								
	116	101	0.017727	0.116777	0.163611	290.0	290.0	290.0	0	0	1	-29.999999999999996	29.999999999999996								
	126	74	0.00593	0.04093	0.072145	446.0	446.0	446.0	0	0	1	-29.999999999999996	29.999999999999996								
	108	90	0.003905	0.028471	0.044983	426.99999999999994	426.99999999999994	426.99999999999994	0	0	1	-29.999999999999996	29.999999999999996								
	118	79	0.008161	0.042417	0.061197	385.0	385.0	385.0	0	0	1	-29.999999999999996	29.999999999999996								
	119	78	0.008161	0.042417	0.061197	385.0	385.0	385.0	0	0	1	-29.999999999999996	29.999999999999996								
	79	76	0.005186	0.038388	0.058748	492.0	492.0	492.0	0	0	1	-29.999999999999996	29.999999999999996								
	78	73	0.002128	0.014029	0.022603	335.0	335.0	335.0	0	0	1	-29.999999999999996	29.999999999999996								
	114	78	0.004628	0.027748	0.046115	362.0	362.0	362.0	0	0	1	-29.999999999999996	29.999999999999996								
	103	72	0.011219	0.070744	0.115705	290.0	290.0	290.0	0	0	1	-29.999999999999996	29.999999999999996								
	110	117	0.006012	0.041467	0.073636	426.99999999999994	426.99999999999994	426.99999999999994	0	0	1	-29.999999999999996	29.999999999999996								
	91	69	0.002066	0.012789	0.020551	316.0	316.0	316.0	0	0	1	-29.999999999999996	29.999999999999996								
	86	90	0.001364	0.009731	0.016243	457.0	457.0	457.0	0	0	1	-29.999999999999996	29.999999999999996								
	129	87	0.000579	0.004112	0.007008	446.0	446.0	446.0	0	0	1	-29.999999999999996	29.999999999999996								
	132	76	0.000847	0.00624	0.009544	457.0	457.0	457.0	0	0	1	-29.999999999999996	29.999999999999996								
	133	77	0.000847	0.00626	0.009477	457.0	457.0	457.0	0	0	1	-29.999999999999996	29.999999999999996								
	102	77	0.001591	0.011116	0.019128	492.0	492.0	492.0	0	0	1	-29.999999999999996	29.999999999999996								
	125	104	0.003141	0.021591	0.038391	446.0	446.0	446.0	0	0	1	-29.999999999999996	29.999999999999996								
	126	111	0.004545	0.03157	0.055312	373.0	373.0	373.0	0	0	1	-29.999999999999996	29.999999999999996								
	104	84	0.001446	0.009917	0.017598	373.0	373.0	373.0	0	0	1	-29.999999999999996	29.999999999999996								
	105	95	0.003822	0.026674	0.046154	373.0	373.0	373.0	0	0	1	-29.999999999999996	29.999999999999996								
	112	80	0.007769	0.041281	0.063907	316.0	316.0	316.0	0	0	1	-29.999999999999996	29.999999999999996								
	89	78	0.004463	0.030413	0.048671	290.0	290.0	290.0	0	0	1	-29.999999999999996	29.999999999999996								
	117	108	0.005888	0.035062	0.052349	290.0	290.0	290.0	0	0	1	-29.999999999999996	29.999999999999996								
	109	99	0.003161	0.023409	0.036165	373.0	373.0	373.0	0	0	1	-29.999999999999996	29.999999999999996								
	116	79	0.001839	0.012603	0.022399	373.0	373.0	373.0	0	0	1	-29.999999999999996	29.999999999999996								
	107	88	0.001715	0.009607	0.014239	335.0	335.0	335.0	0	0	1	-29.999999999999996	29.999999999999996								
	98	79	0.003409	0.024421	0.039969	290.0	290.0	290.0	0	0	1	-29.999999999999996	29.999999999999996								
	117	78	0.001839	0.012603	0.02239	373.0	373.0	373.0	0	0	1	-29.999999999999996	29.999999999999996								
	83	97	0.005702	0.041488	0.066172	446.0	446.0	446.0	0	0	1	-29.999999999999996	29.999999999999996								
	124	118	0.004587	0.024628	0.036165	347.0	347.0	347.0	0	0	1	-29.999999999999996	29.999999999999996								
	124	110	0.002149	0.013327	0.022109	290.0	290.0	290.0	0	0	1	-29.999999999999996	29.999999999999996								
	100	71	0.000785	0.004876	0.00726	316.0	316.0	316.0	0	0	1	-29.999999999999996	29.999999999999996								
	101	70	0.000785	0.004876	0.007241	316.0	316.0	316.0	0	0	1	-29.999999999999996	29.999999999999996								
	93	127	0.002413	0.027544	0.767968	831.0	831.0	831.0	0	0	1	-29.999999999999996	29.999999999999996								
	82	127	0.002462	0.028525	0.7616	1621.0	1621.0	1621.0	0	0	1	-29.999999999999996	29.999999999999996								
	122	115	0.000913	0.0104	0.289888	1358.0	1358.0	1358.0	0	0	1	-29.999999999999996	29.999999999999996								
	123	121	0.003119	0.035631	0.991072	831.0	831.0	831.0	0	0	1	-29.999999999999996	29.999999999999996								
	115	128	0.000919	0.010512	0.292928	1358.0	1358.0	1358.0	0	0	1	-29.999999999999996	29.999999999999996								
	174	156	0.01545	0.073349	0.126614	461.00000000000006	461.00000000000006	461.00000000000006	0	0	1	-29.999999999999996	29.999999999999996								
	175	155	0.01545	0.073349	0.126614	461.00000000000006	461.00000000000006	461.00000000000006	0	0	1	-29.999999999999996	29.999999999999996								
	177	155	0.01457	0.07955	0.14007	362.0	362.0	362.0	0	0	1	-29.999999999999996	29.999999999999996								
	178	156	0.01457	0.07955	0.14007	362.0	362.0	362.0	0	0	1	-29.999999999999996	29.999999999999996								
	177	144	0.006031	0.04401	0.069793	373.0	373.0	373.0	0	0	1	-29.999999999999996	29.999999999999996								
	166	140	0.011031	0.08057	0.124127	446.0	446.0	446.0	0	0	1	-29.999999999999996	29.999999999999996								
	137	155	0.005831	0.04231	0.070664	426.99999999999994	426.99999999999994	426.99999999999994	0	0	1	-29.999999999999996	29.999999999999996								
	171	174	0.01849	0.095599	0.159139	305.0	305.0	305.0	0	0	1	-29.999999999999996	29.999999999999996								
	152	175	0.010581	0.053	0.088475	415.00000000000006	415.00000000000006	415.00000000000006	0	0	1	-29.999999999999996	29.999999999999996								
	154	156	0.012521	0.091359	0.145394	457.0	457.0	457.0	0	0	1	-29.999999999999996	29.999999999999996								
	136	137	0.00506	0.036539	0.063598	305.0	305.0	305.0	0	0	1	-29.999999999999996	29.999999999999996								
	148	143	0.01043	0.077891	0.122065	426.99999999999994	426.99999999999994	426.99999999999994	0	0	1	-29.999999999999996	29.999999999999996								
	153	181	0.007711	0.056961	0.088378	373.0	373.0	373.0	0	0	1	-29.999999999999996	29.999999999999996								
	171	147	0.018599	0.09638	0.140941	290.0	290.0	290.0	0	0	1	-29.999999999999996	29.999999999999996								
	176	170	0.00244	0.01318	0.021296	377.0	377.0	377.0	0	0	1	-29.999999999999996	29.999999999999996								
	170	140	0.00355	0.02593	0.041237	446.0	446.0	446.0	0	0	1	-29.999999999999996	29.999999999999996								
	171	168	0.01312	0.076219	0.116644	362.0	362.0	362.0	0	0	1	-29.999999999999996	29.999999999999996								
	170	152	0.009341	0.05225	0.087701	305.0	305.0	305.0	0	0	1	-29.999999999999996	29.999999999999996								
	146	135	0.006141	0.032521	0.052456	385.0	385.0	385.0	0	0	1	-29.999999999999996	29.999999999999996								
	147	134	0.00438	0.03188	0.050723	457.0	457.0	457.0	0	0	1	-29.999999999999996	29.999999999999996								
	165	147	0.000479	0.00331	0.005711	446.0	446.0	446.0	0	0	1	-29.999999999999996	29.999999999999996								
	166	146	0.000479	0.00331	0.005711	446.0	446.0	446.0	0	0	1	-29.999999999999996	29.999999999999996								
	154	143	0.010539	0.076859	0.122355	373.0	373.0	373.0	0	0	1	-29.999999999999996	29.999999999999996								
	160	148	0.00469	0.034651	0.053821	426.99999999999994	426.99999999999994	426.99999999999994	0	0	1	-29.999999999999996	29.999999999999996								
	149	141	0.006469	0.0413	0.069212	426.99999999999994	426.99999999999994	426.99999999999994	0	0	1	-29.999999999999996	29.999999999999996								
	169	141	0.00105	0.007211	0.01028	373.0	373.0	373.0	0	0	1	-29.999999999999996	29.999999999999996								
	169	160	0.006099	0.044831	0.070954	373.0	373.0	373.0	0	0	1	-29.999999999999996	29.999999999999996								
	177	136	0.002211	0.01655	0.024781	373.0	373.0	373.0	0	0	1	-29.999999999999996	29.999999999999996								
	179	178	0.005169	0.036979	0.058951	373.0	373.0	373.0	0	0	1	-29.999999999999996	29.999999999999996								
	181	174	0.002401	0.017789	0.027588	381.0	381.0	381.0	0	0	1	-29.999999999999996	29.999999999999996								
	158	138	0.00274	0.02696	0.70592	1150.0	1150.0	1150.0	0	0	1	-29.999999999999996	29.999999999999996								
	164	139	0.0017	0.01733	0.45632	915.0	915.0	915.0	0	0	1	-29.999999999999996	29.999999999999996								
	162	163	0.00136	0.01574	0.433664	1621.0	1621.0	1621.0	0	0	1	-29.999999999999996	29.999999999999996								
	172	151	0.00371	0.04326	1.18688	693.0	693.0	693.0	0	0	1	-29.999999999999996	29.999999999999996								
	188	193	0.02738	0.142539	0.200473	351.0	351.0	351.0	0	0	1	-29.999999999999996	29.999999999999996								
	198	203	0.02756	0.16014	0.242871	274.0	274.0	274.0	0	0	1	-29.999999999999996	29.999999999999996								
	189	208	0.01905	0.11132	0.167851	274.0	274.0	274.0	0	0	1	-29.999999999999996	29.999999999999996								
	191	194	0.00795	0.05919	0.090798	373.0	373.0	373.0	0	0	1	-29.999999999999996	29.999999999999996								
	193	182	0.0018	0.021141	0.051498	747.0	747.0	747.0	0	0	1	-29.999999999999996	29.999999999999996								
	202	204	0.00731	0.055789	0.083635	274.0	274.0	274.0	0	0	1	-29.999999999999996	29.999999999999996								
	190	201	0.00564	0.041961	0.064372	274.0	274.0	274.0	0	0	1	-29.999999999999996	29.999999999999996								
	208	183	0.0057	0.04236	0.129712	366.0	366.0	366.0	0	0	1	-29.999999999999996	29.999999999999996								
	200	184	0.00131	0.01548	0.41152	1358.0	1358.0	1358.0	0	0	1	-29.999999999999996	29.999999999999996								
	186	192	0.00224	0.02583	0.72352	831.0	831.0	831.0	0	0	1	-29.999999999999996	29.999999999999996								
	195	187	0.0021	0.02475	0.65792	1358.0	1358.0	1358.0	0	0	1	-29.999999999999996	29.999999999999996								
	205	199	0.0015	0.01768	0.46944	831.0	831.0	831.0	0	0	1	-29.999999999999996	29.999999999999996								
	186	205	0.00133	0.01569	0.418208	831.0	831.0	831.0	0	0	1	-29.999999999999996	29.999999999999996								
	187	206	0.00133	0.01569	0.418208	831.0	831.0	831.0	0	0	1	-29.999999999999996	29.999999999999996								
...
];

%%-----  OPF Data  -----%%
%% cost data
%    1    startup    shutdown    n    x1    y1    ...    xn    yn
%    2    startup    shutdown    n    c(n-1)    ...    c0
mpc.gencost = [
	2	0.0	0.0	2	112.78	0.0
	2	0.0	0.0	2	112.78	0.0
	2	0.0	0.0	2	76.1	0.0
	2	0.0	0.0	2	76.1	0.0
	2	0.0	0.0	2	76.1	0.0
	2	0.0	0.0	2	76.1	0.0
	2	0.0	0.0	2	76.1	0.0
	2	0.0	0.0	2	76.1	0.0
	2	0.0	0.0	2	76.1	0.0
	2	0.0	0.0	2	76.1	0.0
	2	0.0	0.0	2	76.1	0.0
	2	0.0	0.0	2	76.1	0.0
	2	0.0	0.0	2	76.1	0.0
	2	0.0	0.0	2	102.05	0.0
	2	0.0	0.0	2	102.05	0.0
	2	0.0	0.0	2	102.05	0.0
	2	0.0	0.0	2	102.05	0.0
	2	0.0	0.0	2	102.05	0.0
	2	0.0	0.0	2	102.05	0.0
	2	0.0	0.0	2	102.05	0.0
	2	0.0	0.0	2	102.05	0.0
	2	0.0	0.0	2	105.35000000000001	0.0
	2	0.0	0.0	2	105.35000000000001	0.0
	2	0.0	0.0	2	105.35000000000001	0.0
	2	0.0	0.0	2	105.35000000000001	0.0
	2	0.0	0.0	2	105.35000000000001	0.0
	2	0.0	0.0	2	105.35000000000001	0.0
	2	0.0	0.0	2	105.35000000000001	0.0
	2	0.0	0.0	2	0.0	0.0
	2	0.0	0.0	2	95.31	0.0
	2	0.0	0.0	2	95.31	0.0
	2	0.0	0.0	2	95.31	0.0
	2	0.0	0.0	2	95.31	0.0
	2	0.0	0.0	2	95.31	0.0
	2	0.0	0.0	2	90.03	0.0
	2	0.0	0.0	2	90.03	0.0
	2	0.0	0.0	2	92.78	0.0
	2	0.0	0.0	2	92.78	0.0
	2	0.0	0.0	2	94.09	0.0
	2	0.0	0.0	2	94.09	0.0
	2	0.0	0.0	2	97.12	0.0
	2	0.0	0.0	2	97.12	0.0
	2	0.0	0.0	2	99.52	0.0
	2	0.0	0.0	2	91.16	0.0
	2	0.0	0.0	2	91.16	0.0
	2	0.0	0.0	2	91.16	0.0
	2	0.0	0.0	2	91.16	0.0
	2	0.0	0.0	2	91.16	0.0
	2	0.0	0.0	2	0.01	0.0
	2	0.0	0.0	2	0.01	0.0
	2	0.0	0.0	2	0.01	0.0
	2	0.0	0.0	2	0.01	0.0
	2	0.0	0.0	2	92.43	0.0
	2	0.0	0.0	2	92.43	0.0
	2	0.0	0.0	2	92.43	0.0
	2	0.0	0.0	2	96.42	0.0
	2	0.0	0.0	2	96.42	0.0
	2	0.0	0.0	2	96.42	0.0
	2	0.0	0.0	2	116.01	0.0
	2	0.0	0.0	2	116.01	0.0
	2	0.0	0.0	2	116.01	0.0
	2	0.0	0.0	2	116.01	0.0
	2	0.0	0.0	2	116.01	0.0
	2	0.0	0.0	2	116.01	0.0
	2	0.0	0.0	2	116.01	0.0
	2	0.0	0.0	2	98.84	0.0
	2	0.0	0.0	2	98.84	0.0
	2	0.0	0.0	2	98.84	0.0
	2	0.0	0.0	2	98.84	0.0
	2	0.0	0.0	2	98.84	0.0
	2	0.0	0.0	2	98.84	0.0
	2	0.0	0.0	2	98.84	0.0
	2	0.0	0.0	2	98.84	0.0
	2	0.0	0.0	2	98.84	0.0
	2	0.0	0.0	2	89.22	0.0
	2	0.0	0.0	2	89.22	0.0
	2	0.0	0.0	2	89.22	0.0
	2	0.0	0.0	2	89.22	0.0
	2	0.0	0.0	2	0.01	0.0
	2	0.0	0.0	2	0.01	0.0
	2	0.0	0.0	2	0.01	0.0
	2	0.0	0.0	2	0.01	0.0
	2	0.0	0.0	2	0.0	0.0
	2	0.0	0.0	2	0.0	0.0
	2	0.0	0.0	2	0.0	0.0
	2	0.0	0.0	2	0.0	0.0
	2	0.0	0.0	2	0.0	0.0
	2	0.0	0.0	2	76.1	0.0
	2	0.0	0.0	2	0.0	0.0
	2	0.0	0.0	2	0.0	0.0
	2	0.0	0.0	2	0.0	0.0
	2	0.0	0.0	2	0.0	0.0
	2	0.0	0.0	2	0.0	0.0
	2	0.0	0.0	2	0.0	0.0
	2	0.0	0.0	2	0.0	0.0
	2	0.0	0.0	2	0.0	0.0
	2	0.0	0.0	2	0.0	0.0
	2	0.0	0.0	2	0.0	0.0
	2	0.0	0.0	2	0.0	0.0
	2	0.0	0.0	2	0.0	0.0
	2	0.0	0.0	2	0.0	0.0
	2	0.0	0.0	2	0.0	0.0
	2	0.0	0.0	2	0.0	0.0
	2	0.0	0.0	2	0.0	0.0
	2	0.0	0.0	2	0.0	0.0
	2	0.0	0.0	2	0.0	0.0
	2	0.0	0.0	2	0.0	0.0
	2	0.0	0.0	2	0.0	0.0
	2	0.0	0.0	2	112.78	0.0
	2	0.0	0.0	2	112.78	0.0
	2	0.0	0.0	2	112.78	0.0
	2	0.0	0.0	2	0.0	0.0
	2	0.0	0.0	2	0.0	0.0
	2	0.0	0.0	2	0.0	0.0
	2	0.0	0.0	2	0.0	0.0
	2	0.0	0.0	2	0.0	0.0
	2	0.0	0.0	2	0.0	0.0
	2	0.0	0.0	2	0.0	0.0
	2	0.0	0.0	2	0.0	0.0
	2	0.0	0.0	2	0.0	0.0
	2	0.0	0.0	2	0.0	0.0
	2	0.0	0.0	2	0.0	0.0
	2	0.0	0.0	2	0.0	0.0
	2	0.0	0.0	2	0.0	0.0
	2	0.0	0.0	2	0.0	0.0
	2	0.0	0.0	2	0.0	0.0
	2	0.0	0.0	2	0.0	0.0
	2	0.0	0.0	2	0.0	0.0
	2	0.0	0.0	2	0.0	0.0
	2	0.0	0.0	2	0.0	0.0
	2	0.0	0.0	2	0.0	0.0
	2	0.0	0.0	2	0.0	0.0
	2	0.0	0.0	2	0.0	0.0
	2	0.0	0.0	2	0.0	0.0
	2	0.0	0.0	2	0.0	0.0
	2	0.0	0.0	2	0.0	0.0
	2	0.0	0.0	2	0.0	0.0
	2	0.0	0.0	2	0.0	0.0
	2	0.0	0.0	2	0.0	0.0
	2	0.0	0.0	2	0.0	0.0
	2	0.0	0.0	2	0.0	0.0
	2	0.0	0.0	2	0.0	0.0
	2	0.0	0.0	2	0.0	0.0
	2	0.0	0.0	2	0.0	0.0
	2	0.0	0.0	2	0.0	0.0
	2	0.0	0.0	2	0.0	0.0
	2	0.0	0.0	2	0.0	0.0
	2	0.0	0.0	2	0.0	0.0
	2	0.0	0.0	2	0.0	0.0
	2	0.0	0.0	2	102.05	0.0
	2	0.0	0.0	2	102.05	0.0
	2	0.0	0.0	2	0.0	0.0
	2	0.0	0.0	2	0.0	0.0
	2	0.0	0.0	2	0.0	0.0
	2	0.0	0.0	2	0.0	0.0
	2	0.0	0.0	2	0.0	0.0
	2	0.0	0.0	2	0.0	0.0
	2	0.0	0.0	2	0.0	0.0
	2	0.0	0.0	2	0.0	0.0
	2	0.0	0.0	2	0.0	0.0
	2	0.0	0.0	2	0.0	0.0
	2	0.0	0.0	2	0.0	0.0
	2	0.0	0.0	2	0.0	0.0
	2	0.0	0.0	2	105.35000000000001	0.0
	2	0.0	0.0	2	0.0	0.0
	2	0.0	0.0	2	0.0	0.0
	2	0.0	0.0	2	0.0	0.0
	2	0.0	0.0	2	0.0	0.0
	2	0.0	0.0	2	0.0	0.0
	2	0.0	0.0	2	0.0	0.0
	2	0.0	0.0	2	0.0	0.0
	2	0.0	0.0	2	0.0	0.0
	2	0.0	0.0	2	0.01	0.0
	2	0.0	0.0	2	0.01	0.0
	2	0.0	0.0	2	0.01	0.0
	2	0.0	0.0	2	0.01	0.0
	2	0.0	0.0	2	111.63	0.0
	2	0.0	0.0	2	111.63	0.0
	2	0.0	0.0	2	0.0	0.0
	2	0.0	0.0	2	0.0	0.0
	2	0.0	0.0	2	0.0	0.0
	2	0.0	0.0	2	0.0	0.0
	2	0.0	0.0	2	0.0	0.0
	2	0.0	0.0	2	0.0	0.0
	2	0.0	0.0	2	0.0	0.0
	2	0.0	0.0	2	0.0	0.0
	2	0.0	0.0	2	0.0	0.0
	2	0.0	0.0	2	0.0	0.0
	2	0.0	0.0	2	0.0	0.0
	2	0.0	0.0	2	0.0	0.0
	2	0.0	0.0	2	0.0	0.0
	2	0.0	0.0	2	0.0	0.0
	2	0.0	0.0	2	0.0	0.0
	2	0.0	0.0	2	0.0	0.0
	2	0.0	0.0	2	0.0	0.0
	2	0.0	0.0	2	0.0	0.0
	2	0.0	0.0	2	0.0	0.0
	2	0.0	0.0	2	0.0	0.0
	2	0.0	0.0	2	0.0	0.0
	2	0.0	0.0	2	0.0	0.0
...
];

